data/M/Lines.dss
New Line.line_75584501_3094480_3094226 Units=km Length=0.053900001525878906 bus1=3094226.1.2.3 bus2=3094480.1.2.3 switch=n enabled=y phases=3 Linecode=3P_OH_Code4
New Line.line_75584525_3094541_3094249 Units=km Length=0.039599998474121094 bus1=3094249.1.2.3 bus2=3094541.1.2.3 switch=n enabled=y phases=3 Linecode=3P_OH_Code4
New Line.line_75584527_3094253_3094251 Units=km Length=0.0475 bus1=3094251.1.2.3 bus2=3094253.1.2.3 switch=n enabled=y phases=3 Linecode=3P_OH_Code0
New Line.line_75584529_3094778_3094253 Units=km Length=0.020899999618530275 bus1=3094253.1.2.3 bus2=3094778.1.2.3 switch=n enabled=y phases=3 Linecode=3P_Code1
New Line.line_75584530_3094778_3094253 Units=km Length=0.020899999618530275 bus1=3094253.1.2.3 bus2=3094778.1.2.3 switch=n enabled=y phases=3 Linecode=3P_Code1
New Line.line_75584532_3094380_3094255 Units=km Length=0.044400001525878904 bus1=3094255.1.2.3 bus2=3094380.1.2.3 switch=n enabled=y phases=3 Linecode=3P_OH_Code4
New Line.line_75584587_3094457_3094251 Units=km Length=0.027600000381469727 bus1=3094251.1.2.3 bus2=3094457.1.2.3 switch=n enabled=y phases=3 Linecode=3P_Code1
New Line.line_75584590_3094379_3094308 Units=km Length=0.04729999923706055 bus1=3094308.1.2.3 bus2=3094379.1.2.3 switch=n enabled=y phases=3 Linecode=3P_OH_Code0
New Line.line_75584609_3094798_3094249 Units=km Length=0.02160000038146973 bus1=3094249.1.2.3 bus2=3094798.1.2.3 switch=n enabled=y phases=3 Linecode=3P_Code1
New Line.line_75584679_3094251_3094379 Units=km Length=0.04609999847412109 bus1=3094379.1.2.3 bus2=3094251.1.2.3 switch=n enabled=y phases=3 Linecode=3P_OH_Code0
New Line.line_75584680_3094549_3094380 Units=km Length=0.05629999923706055 bus1=3094380.1.2.3 bus2=3094549.1.2.3 switch=n enabled=y phases=3 Linecode=3P_OH_Code4
New Line.line_75584803_3094906_3094226 Units=km Length=0.021200000762939455 bus1=3094226.1.2.3 bus2=3094906.1.2.3 switch=n enabled=y phases=3 Linecode=3P_Code1
New Line.line_75584811_3094914_3094380 Units=km Length=0.031700000762939454 bus1=3094380.1.2.3 bus2=3094914.1.2.3 switch=n enabled=y phases=3 Linecode=3P_Code1
New Line.line_75584812_3094915_3094450 Units=km Length=0.013100000381469726 bus1=3094450.1.2.3 bus2=3094915.1.2.3 switch=n enabled=y phases=3 Linecode=3P_Code1
New Line.line_75584820_3094922_3094456 Units=km Length=0.019799999237060547 bus1=3094456.1.2.3 bus2=3094922.1.2.3 switch=n enabled=y phases=3 Linecode=3P_Code1
New Line.line_75584821_3094923_3094253 Units=km Length=0.0225 bus1=3094253.1.2.3 bus2=3094923.1.2.3 switch=n enabled=y phases=3 Linecode=3P_Code1
New Line.line_75584822_3094924_3094457 Units=km Length=0.017100000381469728 bus1=3094457.1.2.3 bus2=3094924.1.2.3 switch=n enabled=y phases=3 Linecode=3P_Code1
New Line.line_75584823_3094924_3094457 Units=km Length=0.017100000381469728 bus1=3094457.1.2.3 bus2=3094924.1.2.3 switch=n enabled=y phases=3 Linecode=3P_Code1
New Line.line_75584824_3094925_3094379 Units=km Length=0.026399999618530273 bus1=3094379.1.2.3 bus2=3094925.1.2.3 switch=n enabled=y phases=3 Linecode=3P_Code1
New Line.line_75584825_3094926_3094379 Units=km Length=0.028899999618530275 bus1=3094379.1.2.3 bus2=3094926.1.2.3 switch=n enabled=y phases=3 Linecode=3P_Code1
New Line.line_75584874_3094971_3094480 Units=km Length=0.035 bus1=3094480.1.2.3 bus2=3094971.1.2.3 switch=n enabled=y phases=3 Linecode=3P_Code1
New Line.line_75584880_3094977_3094308 Units=km Length=0.03709999847412109 bus1=3094308.1.2.3 bus2=3094977.1.2.3 switch=n enabled=y phases=3 Linecode=3P_Code1
New Line.line_75584926_3095021_3094380 Units=km Length=0.028600000381469728 bus1=3094380.1.2.3 bus2=3095021.1.2.3 switch=n enabled=y phases=3 Linecode=3P_Code1
New Line.line_75584927_3095022_3094255 Units=km Length=0.024899999618530275 bus1=3094255.1.2.3 bus2=3095022.1.2.3 switch=n enabled=y phases=3 Linecode=3P_Code1
New Line.line_75584945_3095040_3094513 Units=km Length=0.02129999923706055 bus1=3094513.1.2.3 bus2=3095040.1.2.3 switch=n enabled=y phases=3 Linecode=3P_Code1
New Line.line_75584946_3095041_3094308 Units=km Length=0.019200000762939453 bus1=3094308.1.2.3 bus2=3095041.1.2.3 switch=n enabled=y phases=3 Linecode=3P_Code1
New Line.line_75584947_3095042_3094380 Units=km Length=0.025700000762939455 bus1=3094380.1.2.3 bus2=3095042.1.2.3 switch=n enabled=y phases=3 Linecode=3P_Code1
New Line.line_75584981_3095074_3094249 Units=km Length=0.022200000762939452 bus1=3094249.1.2.3 bus2=3095074.1.2.3 switch=n enabled=y phases=3 Linecode=3P_Code1
New Line.line_75584982_3095075_3094533 Units=km Length=0.027 bus1=3094533.1.2.3 bus2=3095075.1.2.3 switch=n enabled=y phases=3 Linecode=3P_Code1
New Line.line_75585012_3095096_3094541 Units=km Length=0.018399999618530272 bus1=3094541.1.2.3 bus2=3095096.1.2.3 switch=n enabled=y phases=3 Linecode=3P_Code1
New Line.line_75585025_3095108_3094549 Units=km Length=0.03709999847412109 bus1=3094549.1.2.3 bus2=3095108.1.2.3 switch=n enabled=y phases=3 Linecode=3P_Code1
New Line.line_75585124_3095174_3094251 Units=km Length=0.007099999904632569 bus1=3094251.1.2.3 bus2=3095174.1.2.3 switch=n enabled=y phases=3 Linecode=3P_Code1
New Line.line_75585125_3094450_3094255 Units=km Length=0.015399999618530273 bus1=3094255.1.2.3 bus2=3094450.1.2.3 switch=n enabled=y phases=3 Linecode=3P_Code1
New Line.line_75585149_3094549_3094308 Units=km Length=0.040200000762939454 bus1=3094308.1.2.3 bus2=3094549.1.2.3 switch=n enabled=y phases=3 Linecode=3P_OH_Code0
New Line.line_75585223_3095217_3094249 Units=km Length=0.024899999618530275 bus1=3094249.1.2.3 bus2=3095217.1.2.3 switch=n enabled=y phases=3 Linecode=3P_Code1
New Line.line_75585224_3095218_3094456 Units=km Length=0.022399999618530272 bus1=3094456.1.2.3 bus2=3095218.1.2.3 switch=n enabled=y phases=3 Linecode=3P_Code1
New Line.line_75585225_3095218_3094456 Units=km Length=0.022399999618530272 bus1=3094456.1.2.3 bus2=3095218.1.2.3 switch=n enabled=y phases=3 Linecode=3P_Code1
New Line.line_75585253_3095245_3094249 Units=km Length=0.019600000381469727 bus1=3094249.1.2.3 bus2=3095245.1.2.3 switch=n enabled=y phases=3 Linecode=3P_Code1
New Line.line_75585269_3095258_3094255 Units=km Length=0.021200000762939455 bus1=3094255.1.2.3 bus2=3095258.1.2.3 switch=n enabled=y phases=3 Linecode=3P_Code1
New Line.line_75585270_3095258_3094255 Units=km Length=0.021200000762939455 bus1=3094255.1.2.3 bus2=3095258.1.2.3 switch=n enabled=y phases=3 Linecode=3P_Code1
New Line.line_75585273_3095261_3094533 Units=km Length=0.02179999923706055 bus1=3094533.1.2.3 bus2=3095261.1.2.3 switch=n enabled=y phases=3 Linecode=3P_Code1
New Line.line_75585316_3094255_3094635 Units=km Length=0.043900001525878904 bus1=3094635.1.2.3 bus2=3094255.1.2.3 switch=n enabled=y phases=3 Linecode=3P_OH_Code4
New Line.line_75585334_3094513_3094379 Units=km Length=0.023299999237060547 bus1=3094379.1.2.3 bus2=3094513.1.2.3 switch=n enabled=y phases=3 Linecode=3P_Code5
New Line.line_75585346_3095300_3094308 Units=km Length=0.030299999237060546 bus1=3094308.1.2.3 bus2=3095300.1.2.3 switch=n enabled=y phases=3 Linecode=3P_Code1
New Line.line_75585349_3095303_3094249 Units=km Length=0.027100000381469726 bus1=3094249.1.2.3 bus2=3095303.1.2.3 switch=n enabled=y phases=3 Linecode=3P_Code1
New Line.line_75585371_3095315_3094380 Units=km Length=0.020899999618530275 bus1=3094380.1.2.3 bus2=3095315.1.2.3 switch=n enabled=y phases=3 Linecode=3P_Code1
New Line.line_75585391_3095328_3094255 Units=km Length=0.032099998474121094 bus1=3094255.1.2.3 bus2=3095328.1.2.3 switch=n enabled=y phases=3 Linecode=3P_Code1
New Line.line_75585434_3094549_3094541 Units=km Length=0.040599998474121095 bus1=3094541.1.2.3 bus2=3094549.1.2.3 switch=n enabled=y phases=3 Linecode=3P_OH_Code4
New Line.line_75585464_3094249_3094533 Units=km Length=0.042099998474121096 bus1=3094533.1.2.3 bus2=3094249.1.2.3 switch=n enabled=y phases=3 Linecode=3P_OH_Code4
New Line.line_75585500_3094226_3094456 Units=km Length=0.019 bus1=3094456.1.2.3 bus2=3094226.1.2.3 switch=n enabled=y phases=3 Linecode=3P_Code1
New Line.line_75585564_3095436_3094251 Units=km Length=0.019799999237060547 bus1=3094251.1.2.3 bus2=3095436.1.2.3 switch=n enabled=y phases=3 Linecode=3P_Code1
New Line.line_75585575_3095441_3094255 Units=km Length=0.02979999923706055 bus1=3094255.1.2.3 bus2=3095441.1.2.3 switch=n enabled=y phases=3 Linecode=3P_Code1
New Line.line_75585657_3095495_3094513 Units=km Length=0.023 bus1=3094513.1.2.3 bus2=3095495.1.2.3 switch=n enabled=y phases=3 Linecode=3P_Code1
New Line.line_75585699_3094253_3094226 Units=km Length=0.039599998474121094 bus1=3094226.1.2.3 bus2=3094253.1.2.3 switch=n enabled=y phases=3 Linecode=3P_OH_Code0
New Line.line_75585792_3094706_3094635 Units=km Length=0.019399999618530273 bus1=3094635.3 bus2=3094706.3 switch=n enabled=y phases=1 Linecode=1P_Code6
New Line.line_75585793_3095572_3094706 Units=km Length=0.021700000762939455 bus1=3094706.3 bus2=3095572.3 switch=n enabled=y phases=1 Linecode=1P_Code6
New Line.line_75585806_3095583_3094457 Units=km Length=0.018000000000000002 bus1=3094457.1.2.3 bus2=3095583.1.2.3 switch=n enabled=y phases=3 Linecode=3P_Code1
New Line.line_75585823_3095592_3094635 Units=km Length=0.007900000095367432 bus1=3094635.1.2.3 bus2=3095592.1.2.3 switch=n enabled=y phases=3 Linecode=3P_Code5
New Line.line_75585853_3095611_3094533 Units=km Length=0.020100000381469727 bus1=3094533.1.2.3 bus2=3095611.1.2.3 switch=n enabled=y phases=3 Linecode=3P_Code1
New Line.line_75585901_3094379_3094730 Units=km Length=0.015 bus1=3094730.3 bus2=3094379.3 switch=n enabled=y phases=1 Linecode=1P_Code6
New Line.line_75585902_3095634_3094730 Units=km Length=0.010600000381469727 bus1=3094730.3 bus2=3095634.3 switch=n enabled=y phases=1 Linecode=1P_Code6
New Line.line_75586008_3095694_3094635 Units=km Length=0.018100000381469725 bus1=3094635.1.2.3 bus2=3095694.1.2.3 switch=n enabled=y phases=3 Linecode=3P_Code1
New Line.line_75586065_3094772_3094253 Units=km Length=0.023200000762939453 bus1=3094253.3 bus2=3094772.3 switch=n enabled=y phases=1 Linecode=1P_Code2
New Line.line_75586066_3095730_3094772 Units=km Length=0.024600000381469728 bus1=3094772.3 bus2=3095730.3 switch=n enabled=y phases=1 Linecode=1P_Code2
New Line.line_75589835_3096177_3095258 Units=km Length=0.004071000982599627 bus1=3095258.1 bus2=3096177.1 switch=n enabled=y phases=1 Linecode=1P_Code3
New Line.line_75589836_3096178_3095436 Units=km Length=0.03898036955003891 bus1=3095436.1 bus2=3096178.1 switch=n enabled=y phases=1 Linecode=1P_Code3
New Line.line_75589837_3096179_3095436 Units=km Length=0.025363365968765098 bus1=3095436.2 bus2=3096179.2 switch=n enabled=y phases=1 Linecode=1P_Code3
New Line.line_75589838_3096180_3095174 Units=km Length=0.016680637997439463 bus1=3095174.1 bus2=3096180.1 switch=n enabled=y phases=1 Linecode=1P_Code3
New Line.line_75589839_3096181_3095730 Units=km Length=0.02379343248145388 bus1=3095730.3 bus2=3096181.3 switch=n enabled=y phases=1 Linecode=1P_Code3
New Line.line_75589840_3096182_3095218 Units=km Length=0.004909836860722533 bus1=3095218.3 bus2=3096182.3 switch=n enabled=y phases=1 Linecode=1P_Code3
New Line.line_75589841_3096183_3094924 Units=km Length=0.007660051305084211 bus1=3094924.2 bus2=3096183.2 switch=n enabled=y phases=1 Linecode=1P_Code3
New Line.line_75589842_3096184_3094924 Units=km Length=0.01706280926466336 bus1=3094924.2 bus2=3096184.2 switch=n enabled=y phases=1 Linecode=1P_Code3
New Line.line_75589843_3096185_3094924 Units=km Length=0.01706280926466336 bus1=3094924.2 bus2=3096185.2 switch=n enabled=y phases=1 Linecode=1P_Code3
New Line.line_75589844_3096186_3094924 Units=km Length=0.01706280926466336 bus1=3094924.1 bus2=3096186.1 switch=n enabled=y phases=1 Linecode=1P_Code3
New Line.line_75589845_3096187_3094924 Units=km Length=0.007660051305084211 bus1=3094924.3 bus2=3096187.3 switch=n enabled=y phases=1 Linecode=1P_Code3
New Line.line_75589846_3096188_3095040 Units=km Length=0.006126723683335025 bus1=3095040.1 bus2=3096188.1 switch=n enabled=y phases=1 Linecode=1P_Code3
New Line.line_75589950_3096292_3095040 Units=km Length=0.006126723683335025 bus1=3095040.2 bus2=3096292.2 switch=n enabled=y phases=1 Linecode=1P_Code3
New Line.line_75589953_3096295_3095258 Units=km Length=0.02313054106570867 bus1=3095258.1 bus2=3096295.1 switch=n enabled=y phases=1 Linecode=1P_Code3
New Line.line_75589985_3096327_3094798 Units=km Length=0.033465813989784036 bus1=3094798.1 bus2=3096327.1 switch=n enabled=y phases=1 Linecode=1P_Code3
New Line.line_75589989_3096331_3094778 Units=km Length=0.010176368704362627 bus1=3094778.3 bus2=3096331.3 switch=n enabled=y phases=1 Linecode=1P_Code3
New Line.line_75589997_3096339_3094772 Units=km Length=0.008998032409496525 bus1=3094772.3 bus2=3096339.3 switch=n enabled=y phases=1 Linecode=1P_Code3
New Line.line_75590011_3096353_3095592 Units=km Length=0.016831929003937547 bus1=3095592.2 bus2=3096353.2 switch=n enabled=y phases=1 Linecode=1P_Code3
New Line.line_75590012_3096354_3095022 Units=km Length=0.02726634568922886 bus1=3095022.1 bus2=3096354.1 switch=n enabled=y phases=1 Linecode=1P_Code3
New Line.line_75590049_3096391_3094922 Units=km Length=0.024295500390785894 bus1=3094922.3 bus2=3096391.3 switch=n enabled=y phases=1 Linecode=1P_Code3
